Version 4
SHEET 1 880 680
WIRE 128 96 128 64
WIRE 112 112 96 112
WIRE 192 112 192 96
WIRE 176 128 160 128
WIRE 240 128 224 128
WIRE 112 144 96 144
FLAG 96 112 In1
IOPIN 96 112 In
FLAG 240 128 Out
IOPIN 240 128 Out
FLAG 192 96 COM
FLAG 96 144 In2
IOPIN 96 144 In
FLAG 128 64 COM
SYMBOL nm_not 192 128 R0
SYMATTR InstName X1
SYMBOL nm_nand 128 128 R0
SYMATTR InstName X2
