Version 4
SHEET 1 880 680
WIRE 48 0 48 -32
WIRE -16 16 -32 16
WIRE -16 48 -48 48
WIRE 128 48 112 48
WIRE 144 48 128 48
WIRE -32 80 -32 16
WIRE 128 80 128 48
WIRE 256 96 256 64
WIRE -48 112 -48 48
WIRE -48 112 -64 112
WIRE 176 112 144 48
WIRE 192 112 176 112
WIRE 336 112 320 112
WIRE -32 144 128 80
WIRE 128 144 -32 80
WIRE 192 144 176 144
WIRE 336 144 320 144
WIRE 48 160 48 128
WIRE -32 176 -32 144
WIRE -16 176 -32 176
WIRE -48 208 -48 112
WIRE -16 208 -48 208
WIRE 144 208 176 144
WIRE 144 208 112 208
WIRE -16 240 -32 240
WIRE 128 240 128 144
WIRE 128 240 112 240
WIRE 0 0 0 0
FLAG -64 112 C
IOPIN -64 112 In
FLAG 336 112 Out
IOPIN 336 112 Out
FLAG 48 128 COM
FLAG -32 240 D
IOPIN -32 240 In
FLAG 48 -32 COM
FLAG 336 144 Out^
IOPIN 336 144 Out
FLAG 256 64 COM
SYMBOL nm_sr 224 128 R0
SYMATTR InstName X1
SYMBOL nm_sr 16 32 R0
SYMATTR InstName X2
SYMBOL nm_sr2x1 16 224 R0
SYMATTR InstName X3
