Version 4
SHEET 1 880 680
WIRE 288 128 288 112
WIRE 128 176 128 160
WIRE 192 176 192 160
WIRE 112 192 80 192
WIRE 176 192 160 192
WIRE 240 208 224 208
WIRE 176 224 160 224
WIRE 32 240 32 224
WIRE 112 240 112 224
WIRE 288 240 288 224
WIRE 304 240 288 240
WIRE 16 256 0 256
WIRE 96 256 64 256
WIRE 288 256 288 240
WIRE 160 272 160 224
WIRE 160 272 144 272
WIRE 80 288 80 192
WIRE 80 288 0 288
WIRE 96 288 80 288
WIRE 192 304 192 288
WIRE 160 320 160 272
WIRE 176 320 160 320
WIRE 240 336 224 336
WIRE 80 352 80 288
WIRE 176 352 80 352
WIRE 288 368 288 352
FLAG 0 256 In
IOPIN 0 256 In
FLAG 304 240 Out
IOPIN 304 240 Out
FLAG 288 112 COM
FLAG 288 368 0
FLAG 0 288 en
IOPIN 0 288 In
FLAG 192 160 COM
FLAG 128 160 COM
FLAG 192 288 COM
FLAG 112 224 COM
FLAG 32 224 COM
SYMBOL nmos 240 256 R0
SYMATTR InstName M1
SYMATTR Value 2N7002
SYMBOL pmos 240 128 R0
SYMATTR InstName M2
SYMATTR Value BSS84
SYMBOL nm_xor 192 208 R0
SYMATTR InstName X1
SYMBOL nm_and 192 336 R0
SYMATTR InstName X2
SYMBOL nm_and 112 272 R0
SYMATTR InstName X3
SYMBOL nm_not 128 192 R0
SYMATTR InstName X4
SYMBOL nm_not 32 256 R0
SYMATTR InstName X5
