Version 4
SHEET 1 880 680
WIRE 224 32 224 0
WIRE 208 48 192 48
WIRE 272 64 256 64
WIRE 288 64 272 64
WIRE 208 80 192 80
WIRE 192 96 192 80
WIRE 272 96 272 64
WIRE 192 128 272 96
WIRE 272 128 192 96
WIRE 224 160 224 128
WIRE 192 176 192 128
WIRE 208 176 192 176
WIRE 272 192 272 128
WIRE 272 192 256 192
WIRE 288 192 272 192
WIRE 208 208 192 208
FLAG 192 48 S^
IOPIN 192 48 In
FLAG 288 64 Out
IOPIN 288 64 Out
FLAG 224 0 COM
FLAG 192 208 R^
IOPIN 192 208 In
FLAG 224 128 COM
FLAG 288 192 Out^
IOPIN 288 192 Out
SYMBOL nm_nand 224 64 R0
SYMATTR InstName X1
SYMBOL nm_nand 224 192 R0
SYMATTR InstName X2
