Version 4
SHEET 1 916 680
WIRE 112 -368 96 -368
WIRE 208 -368 192 -368
WIRE 352 -368 208 -368
WIRE 96 -352 96 -368
WIRE 352 -352 352 -368
WIRE 208 -272 208 -288
WIRE 256 -272 208 -272
WIRE 304 -272 256 -272
WIRE 256 -240 256 -272
WIRE 272 -240 256 -240
WIRE 144 -192 128 -192
WIRE 160 -192 144 -192
WIRE 208 -160 208 -176
WIRE 352 -160 352 -256
WIRE 352 -160 208 -160
WIRE 32 -144 16 -144
WIRE 144 -144 144 -192
WIRE 144 -144 112 -144
WIRE 16 -128 16 -144
WIRE 144 -80 144 -144
WIRE 160 -80 144 -80
WIRE 208 -48 208 -64
FLAG 96 -352 0
FLAG 208 -48 0
FLAG 16 -128 0
FLAG 128 -192 Vin
FLAG 272 -240 Vout
SYMBOL nmos 160 -272 R0
SYMATTR InstName M1
SYMATTR Value 2N7002
SYMBOL voltage 208 -368 R90
WINDOW 123 0 0 Left 0
WINDOW 39 0 0 Left 0
SYMATTR InstName V1
SYMATTR Value 5
SYMBOL voltage 128 -144 R90
WINDOW 0 -32 56 VBottom 2
WINDOW 3 32 56 VTop 2
WINDOW 123 0 0 Left 0
WINDOW 39 0 0 Left 0
SYMATTR InstName V2
SYMATTR Value SINE(2.5 2.5 1)
SYMBOL res 192 -384 R0
SYMATTR InstName R1
SYMATTR Value 10k
SYMBOL nmos 160 -160 R0
SYMATTR InstName M2
SYMATTR Value 2N7002
SYMBOL nmos 304 -352 R0
SYMATTR InstName M3
SYMATTR Value 2N7002
TEXT -18 -280 Left 2 !.tran 10s
