Version 4
SHEET 1 880 680
WIRE 320 32 320 16
WIRE 288 48 256 48
WIRE 304 48 288 48
WIRE 320 96 320 80
WIRE 352 96 352 48
WIRE 368 96 352 96
WIRE 416 96 416 80
WIRE 272 112 256 112
WIRE 304 112 272 112
WIRE 368 112 352 112
WIRE 464 128 448 128
WIRE 288 144 288 48
WIRE 368 144 288 144
WIRE 272 160 272 112
WIRE 368 160 272 160
FLAG 256 48 In1
IOPIN 256 48 In
FLAG 464 128 Out
IOPIN 464 128 Out
FLAG 256 112 In2
IOPIN 256 112 In
FLAG 320 16 COM
FLAG 320 80 COM
FLAG 416 80 COM
SYMBOL nm_aoi2x2 400 128 R0
SYMATTR InstName X1
SYMBOL nm_not 320 112 R0
SYMATTR InstName X2
SYMBOL nm_not 320 48 R0
SYMATTR InstName X3
