Version 4
SHEET 1 880 680
WIRE 320 64 320 48
WIRE 288 80 256 80
WIRE 304 80 288 80
WIRE 352 96 352 80
WIRE 368 96 352 96
WIRE 416 96 416 80
WIRE 272 112 256 112
WIRE 368 112 272 112
WIRE 464 128 448 128
WIRE 288 144 288 80
WIRE 368 144 288 144
WIRE 368 160 352 160
WIRE 320 176 320 160
WIRE 272 192 272 112
WIRE 304 192 272 192
WIRE 352 192 352 160
FLAG 256 80 In1
IOPIN 256 80 In
FLAG 464 128 Out
IOPIN 464 128 Out
FLAG 256 112 In2
IOPIN 256 112 In
FLAG 320 48 COM
FLAG 320 160 COM
FLAG 416 80 COM
SYMBOL nm_not 320 192 R0
SYMATTR InstName X2
SYMBOL nm_not 320 80 R0
SYMATTR InstName X3
SYMBOL nm_aoi2x2 400 128 R0
SYMATTR InstName X1
