Version 4
SHEET 1 880 680
WIRE 400 64 160 64
WIRE 240 128 240 80
WIRE 160 144 160 64
WIRE 176 144 160 144
WIRE 320 144 304 144
WIRE -80 160 -80 144
WIRE 64 176 48 176
WIRE 176 176 64 176
WIRE 400 176 400 64
WIRE 400 176 304 176
WIRE 64 208 64 176
WIRE -80 256 -80 240
WIRE 64 304 64 288
FLAG -80 256 0
FLAG -80 144 COM
FLAG 320 144 Out
FLAG 240 80 COM
FLAG 64 304 0
FLAG 48 176 In
SYMBOL voltage -80 144 R0
WINDOW 123 0 0 Left 0
WINDOW 39 0 0 Left 0
SYMATTR InstName V1
SYMATTR Value 5
SYMBOL voltage 64 192 R0
WINDOW 123 0 0 Left 0
WINDOW 39 0 0 Left 0
SYMATTR InstName V3
SYMATTR Value PULSE(0 5 .5 0 0 .5 1)
SYMBOL nm_dff 208 160 R0
SYMATTR InstName X1
TEXT -112 280 Left 2 !.tran 10s
