Version 4
SHEET 1 880 680
WIRE -192 112 -192 96
WIRE 192 128 192 96
WIRE 16 144 0 144
WIRE 176 144 16 144
WIRE 240 160 224 160
WIRE 112 176 96 176
WIRE 176 176 112 176
WIRE -192 208 -192 192
WIRE 16 208 16 144
WIRE 16 304 16 288
WIRE 112 320 112 176
WIRE 112 416 112 400
FLAG -192 208 0
FLAG -192 96 COM
FLAG 96 176 In2
FLAG 240 160 Out
FLAG 192 96 COM
FLAG 112 416 0
FLAG 16 304 0
FLAG 0 144 In1
SYMBOL voltage -192 96 R0
WINDOW 123 0 0 Left 0
WINDOW 39 0 0 Left 0
SYMATTR InstName V1
SYMATTR Value 3.3
SYMBOL voltage 112 304 R0
WINDOW 123 0 0 Left 0
WINDOW 39 0 0 Left 0
SYMATTR InstName V2
SYMATTR Value PULSE(0 3.3 20ms 0 0 20ms 40ms)
SYMBOL voltage 16 192 R0
WINDOW 123 0 0 Left 0
WINDOW 39 0 0 Left 0
SYMATTR InstName V3
SYMATTR Value PULSE(0 3.3 10ms 0 0 10ms 20ms)
SYMBOL nm_nor 192 160 R0
SYMATTR InstName X1
TEXT -224 232 Left 2 !.tran 80ms
