Version 4
SHEET 1 880 680
WIRE -192 112 -192 96
WIRE 192 144 192 112
WIRE 112 160 96 160
WIRE 176 160 112 160
WIRE 240 160 224 160
WIRE 112 192 112 160
WIRE -192 208 -192 192
WIRE 112 288 112 272
FLAG -192 208 0
FLAG -192 96 COM
FLAG 96 160 In
FLAG 240 160 Out
FLAG 192 112 COM
FLAG 112 288 0
SYMBOL voltage -192 96 R0
WINDOW 123 0 0 Left 0
WINDOW 39 0 0 Left 0
SYMATTR InstName V1
SYMATTR Value 3.3
SYMBOL nm_not 192 160 R0
SYMATTR InstName X1
SYMBOL voltage 112 176 R0
WINDOW 123 0 0 Left 0
WINDOW 39 0 0 Left 0
SYMATTR InstName V2
SYMATTR Value PULSE(0 3.3 0 0 0 5ms 10ms)
TEXT -224 232 Left 2 !.tran 1
