Version 4
SHEET 1 880 680
WIRE 16 128 16 112
WIRE 176 160 160 160
WIRE 240 160 224 160
WIRE 16 224 16 208
FLAG 16 224 0
FLAG 16 112 COM
FLAG 160 160 In
FLAG 240 160 Out
SYMBOL voltage 16 112 R0
WINDOW 123 0 0 Left 0
WINDOW 39 0 0 Left 0
SYMATTR InstName V1
SYMATTR Value 3.3
SYMBOL nm_not 192 160 R0
SYMATTR InstName X1
TEXT -16 248 Left 2 !.tran 1
