Version 4
SHEET 1 880 680
WIRE 48 -32 48 -64
WIRE -16 -16 -32 -16
WIRE -16 16 -48 16
WIRE 128 16 112 16
WIRE 144 16 128 16
WIRE -16 48 -64 48
WIRE -32 80 -32 -16
WIRE 128 80 128 16
WIRE 272 80 272 48
WIRE 176 96 144 16
WIRE 208 96 176 96
WIRE 352 96 336 96
WIRE -48 112 -48 16
WIRE -48 112 -64 112
WIRE 208 128 176 128
WIRE 352 128 336 128
WIRE -32 144 128 80
WIRE 128 144 -32 80
WIRE 48 160 48 128
WIRE 208 160 192 160
WIRE -32 176 -32 144
WIRE -16 176 -32 176
WIRE 192 176 192 160
WIRE -48 208 -48 112
WIRE -16 208 -48 208
WIRE 144 208 176 128
WIRE 144 208 112 208
WIRE -16 240 -64 240
WIRE 128 240 128 144
WIRE 128 240 112 240
WIRE -16 272 -64 272
FLAG -64 112 C
IOPIN -64 112 In
FLAG 352 96 Out
IOPIN 352 96 Out
FLAG 48 128 COM
FLAG -64 240 D
IOPIN -64 240 In
FLAG 48 -64 COM
FLAG 352 128 Out^
IOPIN 352 128 Out
FLAG 272 48 COM
FLAG -64 48 R^
IOPIN -64 48 In
FLAG -64 272 R^
IOPIN -64 272 In
FLAG 192 176 R^
IOPIN 192 176 In
SYMBOL sr2x2 16 224 R0
SYMATTR InstName X1
SYMBOL sr1x2 16 0 R0
SYMATTR InstName X2
SYMBOL sr1x2 240 112 R0
SYMATTR InstName X3
