Version 4
SHEET 1 880 680
WIRE 352 96 352 64
WIRE 336 112 320 112
WIRE 416 112 416 96
WIRE 400 128 384 128
WIRE 464 128 448 128
WIRE 336 144 320 144
FLAG 320 112 In1
IOPIN 320 112 In
FLAG 464 128 Out
IOPIN 464 128 Out
FLAG 320 144 In2
IOPIN 320 144 In
FLAG 416 96 COM
FLAG 352 64 COM
SYMBOL not 416 128 R0
SYMATTR InstName X3
SYMBOL nor 352 128 R0
SYMATTR InstName X4
