Version 4
SHEET 1 880 680
WIRE 224 32 224 0
WIRE 208 48 112 48
WIRE 208 64 192 64
WIRE 272 64 256 64
WIRE 288 64 272 64
WIRE 208 80 192 80
WIRE 192 96 192 80
WIRE 272 96 272 64
WIRE 192 128 272 96
WIRE 272 128 192 96
WIRE 224 160 224 128
WIRE 192 176 192 128
WIRE 208 176 192 176
WIRE 208 192 192 192
WIRE 272 192 272 128
WIRE 272 192 256 192
WIRE 288 192 272 192
WIRE 208 208 112 208
WIRE 0 0 0 0
FLAG 112 48 S1^
IOPIN 112 48 In
FLAG 288 64 Out
IOPIN 288 64 Out
FLAG 224 0 COM
FLAG 192 192 R1^
IOPIN 192 192 In
FLAG 224 128 COM
FLAG 288 192 Out^
IOPIN 288 192 Out
FLAG 192 64 S2^
IOPIN 192 64 In
FLAG 112 208 R2^
IOPIN 112 208 In
SYMBOL nand3 224 64 R0
SYMATTR InstName X4
SYMBOL nand3 224 192 R0
SYMATTR InstName X1
